*version 9.1 33405888
u 95
DSTM? 3
U? 7
? 7
@libraries
@analysis
.TRAN 1 0 0 0
+0 0ns
+1 50us
@targets
@attributes
@translators
a 0 u 13 0 0 0 hln 100 PCBOARDS=PCB
a 0 u 13 0 0 0 hln 100 PSPICE=PSPICE
a 0 u 13 0 0 0 hln 100 XILINX=XILINX
@setup
unconnectedPins 0
connectViaLabel 0
connectViaLocalLabels 0
NoStim4ExtIFPortsWarnings 1
AutoGenStim4ExtIFPorts 1
@index
pageloc 1 0 5009 
@status
n 0 110:00:30:03:11:37;1264817497 e 
s 2832 110:00:30:03:11:39;1264817499 e 
*page 1 0 970 720 iA
@ports
port 10 GLOBAL 580 70 u
a 0 xr 3 0 20 8 hcn 100 LABEL=SONDA_9
port 11 GLOBAL 580 150 u
a 0 xr 3 0 20 8 hcn 100 LABEL=SONDA_10
@parts
part 4 7400 150 90 h
a 0 sp 11 0 40 50 hln 100 PART=7400
a 0 s 0:13 0 0 0 hln 100 PKGTYPE=DIP14
a 0 s 0:13 0 0 0 hln 100 GATE=A
a 0 x 0:13 0 0 0 hln 100 PKGREF=NI_3
a 0 xp 9 0 40 0 hln 100 REFDES=NI_3A
part 6 7400 150 150 h
a 0 sp 11 0 40 50 hln 100 PART=7400
a 0 s 0:13 0 0 0 hln 100 PKGTYPE=DIP14
a 0 s 0:13 0 0 0 hln 100 GATE=A
a 0 x 0:13 0 0 0 hln 100 PKGREF=NI_4
a 0 xp 9 0 40 0 hln 100 REFDES=NI_4A
part 5 7400 290 60 h
a 0 sp 11 0 40 50 hln 100 PART=7400
a 0 s 0:13 0 0 0 hln 100 PKGTYPE=DIP14
a 0 s 0:13 0 0 0 hln 100 GATE=A
a 0 x 0:13 0 0 0 hln 100 PKGREF=NI_5
a 0 xp 9 0 40 0 hln 100 REFDES=NI_5A
part 7 7400 290 180 h
a 0 sp 11 0 40 50 hln 100 PART=7400
a 0 s 0:13 0 0 0 hln 100 PKGTYPE=DIP14
a 0 s 0:13 0 0 0 hln 100 GATE=A
a 0 x 0:13 0 0 0 hln 100 PKGREF=NI_6
a 0 xp 9 0 40 0 hln 100 REFDES=NI_6A
part 8 7400 450 60 h
a 0 sp 11 0 40 50 hln 100 PART=7400
a 0 s 0:13 0 0 0 hln 100 PKGTYPE=DIP14
a 0 s 0:13 0 0 0 hln 100 GATE=A
a 0 x 0:13 0 0 0 hln 100 PKGREF=NI_7
a 0 xp 9 0 40 0 hln 100 REFDES=NI_7A
part 9 7400 450 140 h
a 0 sp 11 0 40 50 hln 100 PART=7400
a 0 s 0:13 0 0 0 hln 100 PKGTYPE=DIP14
a 0 s 0:13 0 0 0 hln 100 GATE=A
a 0 x 0:13 0 0 0 hln 100 PKGREF=NI_8
a 0 xp 9 0 40 0 hln 100 REFDES=NI_8A
part 3 STIM1 100 160 h
a 0 x 0:13 0 0 0 hln 100 PKGREF=IZVOR_2
a 0 xp 9 0 1 -2 hln 100 REFDES=IZVOR_2
a 0 u 0 0 0 90 hln 100 COMMAND2=20us 1
a 0 u 0 0 0 100 hln 100 COMMAND3=30us 0
a 0 u 0 0 0 110 hln 100 COMMAND4=40us 1
part 2 STIM1 100 100 h
a 0 x 0:13 0 0 0 hln 100 PKGREF=IZVOR_1
a 0 xp 9 0 1 -2 hln 100 REFDES=IZVOR_1
a 0 u 0 0 0 90 hln 100 COMMAND2=15us 1
a 0 u 0 0 0 100 hln 100 COMMAND3=25us 0
a 0 u 0 0 0 110 hln 100 COMMAND4=35us 1
part 1 titleblk 970 720 h
a 1 s 13 0 350 10 hcn 100 PAGESIZE=A
a 1 s 13 0 180 60 hcn 100 PAGETITLE=
a 1 s 13 0 340 95 hrn 100 PAGECOUNT=1
a 1 s 13 0 300 95 hrn 100 PAGENO=1
part 84 nodeMarker 570 150 h
a 0 s 0 0 0 0 hln 100 PROBEVAR=
a 0 s 0 0 0 0 hln 100 PROBEVAR=
a 0 s 0 0 0 0 hln 100 PROBEVAR=
a 0 a 0 0 4 22 hlb 100 LABEL=1
part 86 nodeMarker 570 70 h
a 0 s 0 0 0 0 hln 100 PROBEVAR=
a 0 s 0 0 0 0 hln 100 PROBEVAR=
a 0 s 0 0 0 0 hln 100 PROBEVAR=
a 0 a 0 0 4 22 hlb 100 LABEL=2
part 88 nodeMarker 100 160 h
a 0 s 0 0 0 0 hln 100 PROBEVAR=
a 0 s 0 0 0 0 hln 100 PROBEVAR=
a 0 s 0 0 0 0 hln 100 PROBEVAR=
a 0 a 0 0 4 22 hlb 100 LABEL=3
part 89 nodeMarker 100 100 h
a 0 s 0 0 0 0 hln 100 PROBEVAR=
a 0 s 0 0 0 0 hln 100 PROBEVAR=
a 0 s 0 0 0 0 hln 100 PROBEVAR=
a 0 a 0 0 4 22 hlb 100 LABEL=4
@conn
w 39
a 0 up 0:33 0 0 0 hln 100 LVL=
s 220 160 260 160 38
a 0 up 33 0 240 159 hct 100 LVL=
s 260 160 260 180 40
s 260 180 290 180 42
w 70
a 0 up 0:33 0 0 0 hln 100 LVL=
s 360 190 410 190 69
a 0 up 33 0 385 189 hct 100 LVL=
s 410 190 410 160 71
s 410 160 450 160 73
w 81
a 0 up 0:33 0 0 0 hln 100 LVL=
s 520 150 570 150 80
a 0 up 33 0 545 149 hct 100 LVL=
s 570 150 580 150 85
w 83
a 0 up 0:33 0 0 0 hln 100 LVL=
s 580 70 570 70 82
s 570 70 520 70 87
a 0 up 33 0 545 69 hct 100 LVL=
w 23
a 0 up 0:33 0 0 0 hln 100 LVL=
s 100 160 130 160 22
s 140 160 140 170 24
s 140 170 150 170 26
s 140 160 140 150 28
s 140 150 150 150 30
s 130 160 140 160 56
s 130 160 130 60 54
s 130 60 290 60 57
a 0 up 33 0 210 59 hct 100 LVL=
w 13
a 0 up 0:33 0 0 0 hln 100 LVL=
s 100 100 110 100 12
s 140 100 140 110 14
s 140 110 150 110 16
s 140 100 140 90 18
s 140 90 150 90 20
s 110 100 140 100 51
s 110 100 110 200 49
s 110 200 290 200 52
a 0 up 33 0 200 199 hct 100 LVL=
w 60
a 0 up 0:33 0 0 0 hln 100 LVL=
s 440 70 440 60 61
s 440 60 450 60 63
s 440 70 440 80 65
s 440 80 450 80 67
s 420 70 440 70 77
s 420 70 420 140 75
a 0 up 33 0 422 105 hlt 100 LVL=
s 420 140 450 140 78
s 360 70 420 70 91
w 33
a 0 up 0:33 0 0 0 hln 100 LVL=
s 260 100 260 80 34
s 260 80 290 80 36
s 220 100 260 100 93
a 0 up 33 0 240 99 hct 100 LVL=
@junction
j 290 80
+ p 5 B
+ w 33
j 150 170
+ p 6 B
+ w 23
j 150 150
+ p 6 A
+ w 23
j 220 160
+ p 6 Y
+ w 39
j 150 110
+ p 4 B
+ w 13
j 150 90
+ p 4 A
+ w 13
j 220 100
+ p 4 Y
+ w 33
j 290 180
+ p 7 A
+ w 39
j 140 100
+ w 13
+ w 13
j 140 160
+ w 23
+ w 23
j 110 100
+ w 13
+ w 13
j 290 200
+ p 7 B
+ w 13
j 130 160
+ w 23
+ w 23
j 290 60
+ p 5 A
+ w 23
j 360 70
+ p 5 Y
+ w 60
j 450 60
+ p 8 A
+ w 60
j 440 70
+ w 60
+ w 60
j 450 80
+ p 8 B
+ w 60
j 360 190
+ p 7 Y
+ w 70
j 450 160
+ p 9 B
+ w 70
j 420 70
+ w 60
+ w 60
j 450 140
+ p 9 A
+ w 60
j 520 150
+ p 9 Y
+ w 81
j 580 150
+ s 11
+ w 81
j 520 70
+ p 8 Y
+ w 83
j 580 70
+ s 10
+ w 83
j 570 150
+ p 84 pin1
+ w 81
j 570 70
+ p 86 pin1
+ w 83
j 100 160
+ p 88 pin1
+ w 23
j 100 100
+ p 89 pin1
+ w 13
j 100 100
+ p 2 pin1
+ w 13
j 100 100
+ p 89 pin1
+ p 2 pin1
j 100 160
+ p 3 pin1
+ w 23
j 100 160
+ p 88 pin1
+ p 3 pin1
@attributes
a 0 s 0:13 0 0 0 hln 100 PAGETITLE=
a 0 s 0:13 0 0 0 hln 100 PAGENO=1
a 0 s 0:13 0 0 0 hln 100 PAGESIZE=A
a 0 s 0:13 0 0 0 hln 100 PAGECOUNT=1
@graphics
t 94 t 5 50 15 116 31 0 17
Test primer br. 9
