*version 9.1 181704636
u 197
U? 15
DSTM? 5
? 6
@libraries
@analysis
.TRAN 1 0 0 0
+0 0ns
+1 100us
@targets
@attributes
@translators
a 0 u 13 0 0 0 hln 100 PCBOARDS=PCB
a 0 u 13 0 0 0 hln 100 PSPICE=PSPICE
a 0 u 13 0 0 0 hln 100 XILINX=XILINX
@setup
unconnectedPins 0
connectViaLabel 0
connectViaLocalLabels 0
NoStim4ExtIFPortsWarnings 1
AutoGenStim4ExtIFPorts 1
@index
pageloc 1 0 8289 
@status
c 109:11:12:12:37:00;1260617820
n 0 110:00:30:03:09:45;1264817385 e 
s 2832 110:00:30:03:09:49;1264817389 e 
*page 1 0 970 720 iA
@ports
port 16 GLOBAL 730 230 u
a 0 xr 3 0 20 8 hcn 100 LABEL=SONDA_18
@parts
part 11 7404 160 480 h
a 0 sp 11 0 40 40 hln 100 PART=7404
a 0 s 0:13 0 0 0 hln 100 PKGTYPE=DIP14
a 0 s 0:13 0 0 0 hln 100 GATE=A
a 0 x 0:13 0 0 0 hln 100 PKGREF=NE_6
a 0 xp 9 0 28 8 hln 100 REFDES=NE_6A
part 13 7432 500 170 h
a 0 sp 11 0 40 50 hln 100 PART=7432
a 0 s 0:13 0 0 0 hln 100 PKGTYPE=DIP14
a 0 s 0:13 0 0 0 hln 100 GATE=A
a 0 x 0:13 0 0 0 hln 100 PKGREF=ILI_15
a 0 xp 9 0 40 0 hln 100 REFDES=ILI_15A
part 14 7432 500 270 h
a 0 sp 11 0 40 50 hln 100 PART=7432
a 0 s 0:13 0 0 0 hln 100 PKGTYPE=DIP14
a 0 s 0:13 0 0 0 hln 100 GATE=A
a 0 x 0:13 0 0 0 hln 100 PKGREF=ILI_16
a 0 xp 9 0 40 0 hln 100 REFDES=ILI_16A
part 15 7432 610 220 h
a 0 sp 11 0 40 50 hln 100 PART=7432
a 0 s 0:13 0 0 0 hln 100 PKGTYPE=DIP14
a 0 s 0:13 0 0 0 hln 100 GATE=A
a 0 x 0:13 0 0 0 hln 100 PKGREF=ILI_17
a 0 xp 9 0 40 0 hln 100 REFDES=ILI_17A
part 77 DigClock 90 70 h
a 0 x 0:13 0 0 0 hln 100 PKGREF=IZVOR_1
a 1 xp 9 0 0 -2 hln 100 REFDES=IZVOR_1
a 0 u 0 0 0 20 hln 100 ONTIME=20uS
a 0 u 0 0 0 30 hln 100 OFFTIME=30uS
part 2 7408 260 70 h
a 0 sp 11 0 40 50 hln 100 PART=7408
a 0 s 0:13 0 0 0 hln 100 PKGTYPE=DIP14
a 0 s 0:13 0 0 0 hln 100 GATE=A
a 0 x 0:13 0 0 0 hln 100 PKGREF=I_7
a 0 xp 9 0 40 0 hln 100 REFDES=I_7A
part 3 7408 350 100 h
a 0 sp 11 0 40 50 hln 100 PART=7408
a 0 s 0:13 0 0 0 hln 100 PKGTYPE=DIP14
a 0 s 0:13 0 0 0 hln 100 GATE=A
a 0 x 0:13 0 0 0 hln 100 PKGREF=I_11
a 0 xp 9 0 40 0 hln 100 REFDES=I_11A
part 4 7408 260 150 h
a 0 sp 11 0 40 50 hln 100 PART=7408
a 0 s 0:13 0 0 0 hln 100 PKGTYPE=DIP14
a 0 s 0:13 0 0 0 hln 100 GATE=A
a 0 x 0:13 0 0 0 hln 100 PKGREF=I_8
a 0 xp 9 0 40 0 hln 100 REFDES=I_8A
part 5 7408 350 180 h
a 0 sp 11 0 40 50 hln 100 PART=7408
a 0 s 0:13 0 0 0 hln 100 PKGTYPE=DIP14
a 0 s 0:13 0 0 0 hln 100 GATE=A
a 0 x 0:13 0 0 0 hln 100 PKGREF=I_12
a 0 xp 9 0 40 0 hln 100 REFDES=I_12A
part 9 7408 350 340 h
a 0 sp 11 0 40 50 hln 100 PART=7408
a 0 s 0:13 0 0 0 hln 100 PKGTYPE=DIP14
a 0 s 0:13 0 0 0 hln 100 GATE=A
a 0 x 0:13 0 0 0 hln 100 PKGREF=I_14
a 0 xp 9 0 40 0 hln 100 REFDES=I_14A
part 7 7408 350 260 h
a 0 sp 11 0 40 50 hln 100 PART=7408
a 0 s 0:13 0 0 0 hln 100 PKGTYPE=DIP14
a 0 s 0:13 0 0 0 hln 100 GATE=A
a 0 x 0:13 0 0 0 hln 100 PKGREF=I_13
a 0 xp 9 0 40 0 hln 100 REFDES=I_13A
part 10 7404 160 410 h
a 0 sp 11 0 40 40 hln 100 PART=7404
a 0 s 0:13 0 0 0 hln 100 PKGTYPE=DIP14
a 0 s 0:13 0 0 0 hln 100 GATE=A
a 0 x 0:13 0 0 0 hln 100 PKGREF=NE_5
a 0 xp 9 0 28 8 hln 100 REFDES=NE_5A
part 78 DigClock 90 230 h
a 0 x 0:13 0 0 0 hln 100 PKGREF=IZVOR_2
a 1 xp 9 0 0 -2 hln 100 REFDES=IZVOR_2
a 0 u 0 0 0 20 hln 100 ONTIME=20uS
a 0 u 0 0 0 30 hln 100 OFFTIME=30uS
part 8 7408 260 310 h
a 0 sp 11 0 40 50 hln 100 PART=7408
a 0 s 0:13 0 0 0 hln 100 PKGTYPE=DIP14
a 0 s 0:13 0 0 0 hln 100 GATE=A
a 0 x 0:13 0 0 0 hln 100 PKGREF=I_10
a 0 xp 9 0 40 0 hln 100 REFDES=I_10A
part 133 STIM1 100 480 h
a 0 u 0 0 0 90 hln 100 COMMAND2=10us 1
a 0 x 0:13 0 0 0 hln 100 PKGREF=IZVOR_4
a 0 xp 9 0 1 -2 hln 100 REFDES=IZVOR_4
a 0 u 0 0 0 100 hln 100 COMMAND3=90us 0
part 132 STIM1 100 410 h
a 0 u 0 0 0 90 hln 100 COMMAND2=20us 1
a 0 x 0:13 0 0 0 hln 100 PKGREF=IZVOR_3
a 0 xp 9 0 1 -2 hln 100 REFDES=IZVOR_3
a 0 u 0 0 0 100 hln 100 COMMAND3=70us 0
part 6 7408 260 230 h
a 0 sp 11 0 40 50 hln 100 PART=7408
a 0 s 0:13 0 0 0 hln 100 PKGTYPE=DIP14
a 0 s 0:13 0 0 0 hln 100 GATE=A
a 0 x 0:13 0 0 0 hln 100 PKGREF=I_9
a 0 xp 9 0 40 0 hln 100 REFDES=I_9A
part 1 titleblk 970 720 h
a 1 s 13 0 350 10 hcn 100 PAGESIZE=A
a 1 s 13 0 180 60 hcn 100 PAGETITLE=
a 1 s 13 0 340 95 hrn 100 PAGECOUNT=1
a 1 s 13 0 300 95 hrn 100 PAGENO=1
part 155 nodeMarker 730 230 h
a 0 s 0 0 0 0 hln 100 PROBEVAR=
a 0 s 0 0 0 0 hln 100 PROBEVAR=
a 0 a 0 0 4 22 hlb 100 LABEL=1
part 156 nodeMarker 90 70 h
a 0 s 0 0 0 0 hln 100 PROBEVAR=
a 0 s 0 0 0 0 hln 100 PROBEVAR=
a 0 a 0 0 4 22 hlb 100 LABEL=2
part 159 nodeMarker 100 480 h
a 0 s 0 0 0 0 hln 100 PROBEVAR=
a 0 s 0 0 0 0 hln 100 PROBEVAR=
a 0 a 0 0 4 22 hlb 100 LABEL=5
part 158 nodeMarker 100 410 h
a 0 s 0 0 0 0 hln 100 PROBEVAR=
a 0 s 0 0 0 0 hln 100 PROBEVAR=
a 0 a 0 0 4 22 hlb 100 LABEL=4
@conn
w 18
a 0 up 0:33 0 0 0 hln 100 LVL=
s 330 80 340 80 17
s 340 80 340 100 19
a 0 up 33 0 342 90 hlt 100 LVL=
s 340 100 350 100 21
w 24
a 0 up 0:33 0 0 0 hln 100 LVL=
s 330 160 340 160 23
s 340 160 340 180 25
a 0 up 33 0 342 170 hlt 100 LVL=
s 340 180 350 180 27
w 34
a 0 up 0:33 0 0 0 hln 100 LVL=
s 350 260 340 260 33
s 330 240 340 240 29
s 340 260 340 240 35
a 0 up 33 0 342 250 hlt 100 LVL=
w 38
a 0 up 0:33 0 0 0 hln 100 LVL=
s 350 340 340 340 37
s 340 340 340 320 39
a 0 up 33 0 342 330 hlt 100 LVL=
s 340 320 330 320 41
w 64
a 0 up 0:33 0 0 0 hln 100 LVL=
s 590 220 610 220 67
s 570 180 590 180 63
s 590 180 590 220 65
a 0 up 33 0 592 200 hlt 100 LVL=
w 70
a 0 up 0:33 0 0 0 hln 100 LVL=
s 590 240 610 240 69
s 590 280 590 240 71
a 0 up 33 0 592 260 hlt 100 LVL=
s 570 280 590 280 73
w 140
a 0 up 0:33 0 0 0 hln 100 LVL=
s 420 190 500 190 139
a 0 up 33 0 460 189 hct 100 LVL=
w 142
a 0 up 0:33 0 0 0 hln 100 LVL=
s 500 270 420 270 141
a 0 up 33 0 460 269 hct 100 LVL=
w 144
a 0 up 0:33 0 0 0 hln 100 LVL=
s 420 350 440 350 143
s 440 350 440 290 145
s 440 290 500 290 147
a 0 up 33 0 470 289 hct 100 LVL=
w 150
a 0 up 0:33 0 0 0 hln 100 LVL=
s 420 110 440 110 149
s 440 110 440 170 151
s 440 170 500 170 153
a 0 up 33 0 470 169 hct 100 LVL=
w 76
a 0 up 0:33 0 0 0 hln 100 LVL=
s 680 230 730 230 75
a 0 up 33 0 705 229 hct 100 LVL=
w 80
a 0 up 0:33 0 0 0 hln 100 LVL=
s 90 70 160 70 79
s 160 70 260 70 85
s 160 70 160 150 83
s 160 150 260 150 86
a 0 up 33 0 210 149 hct 100 LVL=
w 163
a 0 up 0:33 0 0 0 hln 100 LVL=
s 210 410 220 410 99
s 220 410 220 170 164
a 0 up 33 0 222 290 hlt 100 LVL=
s 220 90 260 90 166
s 220 170 220 90 174
s 260 170 220 170 172
w 112
a 0 up 0:33 0 0 0 hln 100 LVL=
s 100 480 140 480 115
s 140 480 160 480 177
s 140 480 140 360 175
s 140 200 350 200 178
s 140 360 140 200 182
s 350 360 140 360 180
a 0 up 33 0 245 359 hct 100 LVL=
w 82
a 0 up 0:33 0 0 0 hln 100 LVL=
s 90 230 160 230 81
s 160 230 260 230 90
s 160 230 160 310 88
s 160 310 260 310 91
a 0 up 33 0 210 309 hct 100 LVL=
w 184
a 0 up 0:33 0 0 0 hln 100 LVL=
s 350 280 150 280 183
a 0 up 33 0 250 279 hct 100 LVL=
s 160 410 150 410 122
s 150 410 100 410 187
s 150 280 150 330 185
s 150 330 150 410 192
s 260 330 150 330 190
w 94
a 0 up 0:33 0 0 0 hln 100 LVL=
s 230 480 210 480 97
s 230 480 230 250 168
a 0 up 33 0 232 300 hlt 100 LVL=
s 230 120 350 120 170
s 230 250 230 120 195
s 260 250 230 250 193
@junction
j 350 100
+ p 3 A
+ w 18
j 330 160
+ p 4 Y
+ w 24
j 350 180
+ p 5 A
+ w 24
j 350 260
+ p 7 A
+ w 34
j 350 340
+ p 9 A
+ w 38
j 610 220
+ p 15 A
+ w 64
j 680 230
+ p 15 Y
+ w 76
j 730 230
+ s 16
+ w 76
j 210 480
+ p 11 Y
+ w 94
j 210 410
+ p 10 Y
+ w 163
j 160 480
+ p 11 A
+ w 112
j 570 180
+ p 13 Y
+ w 64
j 610 240
+ p 15 B
+ w 70
j 570 280
+ p 14 Y
+ w 70
j 420 190
+ p 5 Y
+ w 140
j 500 190
+ p 13 B
+ w 140
j 420 270
+ p 7 Y
+ w 142
j 500 270
+ p 14 A
+ w 142
j 420 350
+ p 9 Y
+ w 144
j 500 290
+ p 14 B
+ w 144
j 420 110
+ p 3 Y
+ w 150
j 500 170
+ p 13 A
+ w 150
j 330 80
+ p 2 Y
+ w 18
j 730 230
+ p 155 pin1
+ s 16
j 730 230
+ p 155 pin1
+ w 76
j 100 480
+ p 159 pin1
+ w 112
j 90 70
+ p 156 pin1
+ p 77 1
j 260 90
+ p 2 B
+ w 163
j 350 120
+ p 3 B
+ w 94
j 260 170
+ p 4 B
+ w 163
j 220 170
+ w 163
+ w 163
j 140 480
+ w 112
+ w 112
j 350 200
+ p 5 B
+ w 112
j 350 360
+ p 9 B
+ w 112
j 140 360
+ w 112
+ w 112
j 350 280
+ p 7 B
+ w 184
j 160 410
+ p 10 A
+ w 184
j 100 410
+ p 158 pin1
+ w 184
j 150 410
+ w 184
+ w 184
j 100 410
+ p 132 pin1
+ w 184
j 100 410
+ p 158 pin1
+ p 132 pin1
j 100 480
+ p 133 pin1
+ w 112
j 100 480
+ p 159 pin1
+ p 133 pin1
j 330 320
+ p 8 Y
+ w 38
j 330 240
+ p 6 Y
+ w 34
j 90 70
+ p 77 1
+ w 80
j 160 70
+ w 80
+ w 80
j 260 150
+ p 4 A
+ w 80
j 260 70
+ p 2 A
+ w 80
j 90 70
+ p 156 pin1
+ w 80
j 260 230
+ p 6 A
+ w 82
j 160 230
+ w 82
+ w 82
j 260 310
+ p 8 A
+ w 82
j 260 330
+ p 8 B
+ w 184
j 150 330
+ w 184
+ w 184
j 90 230
+ p 78 1
+ w 82
j 260 250
+ p 6 B
+ w 94
j 230 250
+ w 94
+ w 94
@attributes
a 0 s 0:13 0 0 0 hln 100 PAGETITLE=
a 0 s 0:13 0 0 0 hln 100 PAGENO=1
a 0 s 0:13 0 0 0 hln 100 PAGESIZE=A
a 0 s 0:13 0 0 0 hln 100 PAGECOUNT=1
@graphics
t 196 t 5 40 25 96 41 0 13
Test primer 6
