*version 9.1 849798574
u 171
U? 14
DSTM? 2
? 5
@libraries
@analysis
.TRAN 1 0 0 0
+0 0ns
+1 10us
@targets
@attributes
@translators
a 0 u 13 0 0 0 hln 100 PCBOARDS=PCB
a 0 u 13 0 0 0 hln 100 PSPICE=PSPICE
a 0 u 13 0 0 0 hln 100 XILINX=XILINX
@setup
unconnectedPins 0
connectViaLabel 0
connectViaLocalLabels 0
NoStim4ExtIFPortsWarnings 1
AutoGenStim4ExtIFPorts 1
@index
pageloc 1 0 7277 
@status
n 0 110:00:30:03:08:04;1264817284 e 
s 2832 110:00:30:15:41:24;1264862484 e 
c 108:10:30:05:19:30;1228018770
*page 1 0 970 720 iA
@ports
port 142 GLOBAL 820 200 u
a 0 xr 3 0 20 8 hcn 100 LABEL=SONDA_13
@parts
part 7 STIM1 80 200 h
a 0 x 0:13 0 0 0 hln 100 PKGREF=IZVOR_1
a 0 xp 9 0 1 -2 hln 100 REFDES=IZVOR_1
a 0 u 0 0 0 90 hln 100 COMMAND2=1us 1
a 0 u 0 0 0 100 hln 100 COMMAND3=3us 0
a 0 u 0 0 0 110 hln 100 COMMAND4=4us 1
a 0 u 0 0 0 120 hln 100 COMMAND5=7us 0
a 0 u 0 0 0 130 hln 100 COMMAND6=8us 1
a 0 u 0 0 0 140 hln 100 COMMAND7=9us 0
part 4 7402 140 190 h
a 0 sp 11 0 40 50 hln 100 PART=7402
a 0 s 0:13 0 0 0 hln 100 PKGTYPE=DIP14
a 0 s 0:13 0 0 0 hln 100 GATE=A
a 0 x 0:13 0 0 0 hln 100 PKGREF=NILI_2
a 0 xp 9 0 40 0 hln 100 REFDES=NILI_2A
a 1 u 0 0 0 0 hcn 100 MNTYMXDLY=2
part 5 7402 230 110 h
a 0 sp 11 0 40 50 hln 100 PART=7402
a 0 s 0:13 0 0 0 hln 100 PKGTYPE=DIP14
a 0 s 0:13 0 0 0 hln 100 GATE=A
a 0 x 0:13 0 0 0 hln 100 PKGREF=NILI_3
a 0 xp 9 0 40 0 hln 100 REFDES=NILI_3A
a 1 u 0 0 0 0 hcn 100 MNTYMXDLY=2
part 48 7402 380 60 h
a 0 sp 11 0 40 50 hln 100 PART=7402
a 0 s 0:13 0 0 0 hln 100 PKGTYPE=DIP14
a 0 s 0:13 0 0 0 hln 100 GATE=A
a 0 x 0:13 0 0 0 hln 100 PKGREF=NILI_4
a 0 xp 9 0 40 0 hln 100 REFDES=NILI_4A
a 1 u 0 0 0 0 hcn 100 MNTYMXDLY=2
part 49 7402 380 130 h
a 0 sp 11 0 40 50 hln 100 PART=7402
a 0 s 0:13 0 0 0 hln 100 PKGTYPE=DIP14
a 0 s 0:13 0 0 0 hln 100 GATE=A
a 0 x 0:13 0 0 0 hln 100 PKGREF=NILI_5
a 0 xp 9 0 40 0 hln 100 REFDES=NILI_5A
a 1 u 0 0 0 0 hcn 100 MNTYMXDLY=2
part 50 7402 480 90 h
a 0 sp 11 0 40 50 hln 100 PART=7402
a 0 s 0:13 0 0 0 hln 100 PKGTYPE=DIP14
a 0 s 0:13 0 0 0 hln 100 GATE=A
a 0 x 0:13 0 0 0 hln 100 PKGREF=NILI_6
a 0 xp 9 0 40 0 hln 100 REFDES=NILI_6A
a 1 u 0 0 0 0 hcn 100 MNTYMXDLY=2
part 6 7402 330 250 h
a 0 sp 11 0 40 50 hln 100 PART=7402
a 0 s 0:13 0 0 0 hln 100 PKGTYPE=DIP14
a 0 s 0:13 0 0 0 hln 100 GATE=A
a 0 x 0:13 0 0 0 hln 100 PKGREF=NILI_7
a 0 xp 9 0 40 0 hln 100 REFDES=NILI_7A
a 1 u 0 0 0 0 hcn 100 MNTYMXDLY=2
part 87 7402 460 250 h
a 0 sp 11 0 40 50 hln 100 PART=7402
a 0 s 0:13 0 0 0 hln 100 PKGTYPE=DIP14
a 0 s 0:13 0 0 0 hln 100 GATE=A
a 0 x 0:13 0 0 0 hln 100 PKGREF=NILI_8
a 0 xp 9 0 40 0 hln 100 REFDES=NILI_8A
a 1 u 0 0 0 0 hcn 100 MNTYMXDLY=2
part 88 7402 460 320 h
a 0 sp 11 0 40 50 hln 100 PART=7402
a 0 s 0:13 0 0 0 hln 100 PKGTYPE=DIP14
a 0 s 0:13 0 0 0 hln 100 GATE=A
a 0 x 0:13 0 0 0 hln 100 PKGREF=NILI_9
a 0 xp 9 0 40 0 hln 100 REFDES=NILI_9A
a 1 u 0 0 0 0 hcn 100 MNTYMXDLY=2
part 90 7402 630 190 h
a 0 sp 11 0 40 50 hln 100 PART=7402
a 0 s 0:13 0 0 0 hln 100 PKGTYPE=DIP14
a 0 s 0:13 0 0 0 hln 100 GATE=A
a 0 x 0:13 0 0 0 hln 100 PKGREF=NILI_11
a 0 xp 9 0 40 0 hln 100 REFDES=NILI_11A
a 1 u 0 0 0 0 hcn 100 MNTYMXDLY=2
part 91 7402 730 190 h
a 0 sp 11 0 40 50 hln 100 PART=7402
a 0 s 0:13 0 0 0 hln 100 PKGTYPE=DIP14
a 0 s 0:13 0 0 0 hln 100 GATE=A
a 0 x 0:13 0 0 0 hln 100 PKGREF=NILI_12
a 0 xp 9 0 40 0 hln 100 REFDES=NILI_12A
a 1 u 0 0 0 0 hcn 100 MNTYMXDLY=2
part 89 7402 540 280 h
a 0 sp 11 0 40 50 hln 100 PART=7402
a 0 s 0:13 0 0 0 hln 100 PKGTYPE=DIP14
a 0 s 0:13 0 0 0 hln 100 GATE=A
a 0 x 0:13 0 0 0 hln 100 PKGREF=NILI_10
a 0 xp 9 0 40 0 hln 100 REFDES=NILI_10A
a 1 u 0 0 0 0 hcn 100 MNTYMXDLY=2
part 1 titleblk 970 720 h
a 1 s 13 0 350 10 hcn 100 PAGESIZE=A
a 1 s 13 0 180 60 hcn 100 PAGETITLE=
a 1 s 13 0 340 95 hrn 100 PAGECOUNT=1
a 1 s 13 0 300 95 hrn 100 PAGENO=1
part 166 nodeMarker 820 200 h
a 0 s 0 0 0 0 hln 100 PROBEVAR=
a 0 s 0 0 0 0 hln 100 PROBEVAR=
a 0 s 0 0 0 0 hln 100 PROBEVAR=
a 0 a 0 0 4 22 hlb 100 LABEL=1
part 167 nodeMarker 100 200 h
a 0 s 0 0 0 0 hln 100 PROBEVAR=
a 0 s 0 0 0 0 hln 100 PROBEVAR=
a 0 s 0 0 0 0 hln 100 PROBEVAR=
a 0 a 0 0 4 22 hlb 100 LABEL=2
@conn
w 52
a 0 up 0:33 0 0 0 hln 100 LVL=
s 450 70 450 90 51
s 450 90 480 90 53
a 0 up 33 0 465 89 hct 100 LVL=
w 56
a 0 up 0:33 0 0 0 hln 100 LVL=
s 450 140 450 110 55
s 450 110 480 110 57
a 0 up 33 0 465 109 hct 100 LVL=
w 60
a 0 up 0:33 0 0 0 hln 100 LVL=
s 300 120 340 120 59
s 340 120 340 70 61
a 0 up 33 0 342 95 hlt 100 LVL=
s 340 70 360 70 63
s 360 70 360 60 65
s 360 60 380 60 67
s 360 70 360 80 69
s 360 80 380 80 71
w 19
a 0 up 0:33 0 0 0 hln 100 LVL=
s 210 200 280 200 18
a 0 up 33 0 245 199 hct 100 LVL=
s 280 200 280 260 20
s 330 250 320 250 26
s 320 250 320 260 28
s 320 270 330 270 30
s 320 260 320 270 34
s 280 260 320 260 32
s 280 200 320 200 73
s 320 200 320 140 75
s 320 140 360 140 77
s 360 140 360 130 79
s 360 130 380 130 81
s 360 140 360 150 83
s 360 150 380 150 85
w 105
a 0 up 0:33 0 0 0 hln 100 LVL=
s 400 260 450 260 104
a 0 up 33 0 425 259 hct 100 LVL=
s 450 270 460 270 112
s 450 260 450 270 110
s 450 250 460 250 108
s 450 260 450 250 106
w 119
a 0 up 0:33 0 0 0 hln 100 LVL=
s 530 300 540 300 120
s 530 330 530 300 118
a 0 up 33 0 532 315 hlt 100 LVL=
w 115
a 0 up 0:33 0 0 0 hln 100 LVL=
s 530 280 540 280 116
s 530 260 530 280 114
a 0 up 33 0 532 270 hlt 100 LVL=
w 133
a 0 up 0:33 0 0 0 hln 100 LVL=
s 720 210 730 210 140
s 720 190 730 190 136
s 720 210 720 200 134
s 720 200 720 190 163
s 700 200 720 200 132
a 0 up 33 0 710 199 hct 100 LVL=
w 144
a 0 up 0:33 0 0 0 hln 100 LVL=
s 820 200 800 200 164
a 0 up 33 0 810 199 hct 100 LVL=
w 146
a 0 up 0:33 0 0 0 hln 100 LVL=
s 100 200 100 330 92
s 80 200 100 200 8
s 100 200 130 200 37
s 100 200 100 120 35
s 130 200 130 190 10
s 130 200 130 210 14
s 100 120 220 120 38
s 130 190 140 190 12
s 130 210 140 210 16
s 220 120 220 110 40
s 220 120 220 130 44
s 220 110 230 110 42
s 220 130 230 130 46
s 100 330 450 330 94
a 0 up 33 0 275 329 hct 100 LVL=
s 450 340 460 340 102
s 450 330 450 340 100
s 450 320 460 320 98
s 450 330 450 320 96
w 123
a 0 up 0:33 0 0 0 hln 100 LVL=
s 610 100 550 100 122
s 610 190 610 100 124
a 0 up 33 0 612 145 hlt 100 LVL=
s 630 190 610 190 126
w 129
a 0 up 0:33 0 0 0 hln 100 LVL=
s 610 290 610 210 128
a 0 up 33 0 612 250 hlt 100 LVL=
s 610 210 630 210 130
@junction
j 130 200
+ w 146
+ w 146
j 330 250
+ p 6 A
+ w 19
j 330 270
+ p 6 B
+ w 19
j 320 260
+ w 19
+ w 19
j 100 200
+ w 146
+ w 146
j 220 120
+ w 146
+ w 146
j 450 70
+ p 48 Y
+ w 52
j 480 90
+ p 50 A
+ w 52
j 450 140
+ p 49 Y
+ w 56
j 480 110
+ p 50 B
+ w 56
j 380 60
+ p 48 A
+ w 60
j 360 70
+ w 60
+ w 60
j 380 80
+ p 48 B
+ w 60
j 280 200
+ w 19
+ w 19
j 380 130
+ p 49 A
+ w 19
j 360 140
+ w 19
+ w 19
j 380 150
+ p 49 B
+ w 19
j 140 190
+ p 4 A
+ w 146
j 140 210
+ p 4 B
+ w 146
j 210 200
+ p 4 Y
+ w 19
j 230 110
+ p 5 A
+ w 146
j 230 130
+ p 5 B
+ w 146
j 300 120
+ p 5 Y
+ w 60
j 400 260
+ p 6 Y
+ w 105
j 610 290
+ p 89 Y
+ w 129
j 540 300
+ p 89 B
+ w 119
j 530 330
+ p 88 Y
+ w 119
j 540 280
+ p 89 A
+ w 115
j 530 260
+ p 87 Y
+ w 115
j 460 270
+ p 87 B
+ w 105
j 460 250
+ p 87 A
+ w 105
j 450 260
+ w 105
+ w 105
j 460 340
+ p 88 B
+ w 146
j 460 320
+ p 88 A
+ w 146
j 450 330
+ w 146
+ w 146
j 550 100
+ p 50 Y
+ w 123
j 630 190
+ p 90 A
+ w 123
j 630 210
+ p 90 B
+ w 129
j 730 210
+ p 91 B
+ w 133
j 730 190
+ p 91 A
+ w 133
j 700 200
+ p 90 Y
+ w 133
j 720 200
+ w 133
+ w 133
j 820 200
+ s 142
+ w 144
j 800 200
+ p 91 Y
+ w 144
j 820 200
+ p 166 pin1
+ s 142
j 820 200
+ p 166 pin1
+ w 144
j 100 200
+ p 167 pin1
+ w 146
j 80 200
+ p 7 pin1
+ w 146
@attributes
a 0 s 0:13 0 0 0 hln 100 PAGETITLE=
a 0 s 0:13 0 0 0 hln 100 PAGENO=1
a 0 s 0:13 0 0 0 hln 100 PAGESIZE=A
a 0 s 0:13 0 0 0 hln 100 PAGECOUNT=1
@graphics
t 145 t 5 20 35 76 51 0 13
Test primer 3
t 168 t 5 30 205 83 221 0 15
Digitalni izvor
