*version 9.1 3686763355
u 140
U? 13
DSTM? 5
? 9
@libraries
@analysis
.TRAN 1 0 0 0
+0 0ns
+1 100us
@targets
@attributes
@translators
a 0 u 13 0 0 0 hln 100 PCBOARDS=PCB
a 0 u 13 0 0 0 hln 100 PSPICE=PSPICE
a 0 u 13 0 0 0 hln 100 XILINX=XILINX
@setup
unconnectedPins 0
connectViaLabel 0
connectViaLocalLabels 0
NoStim4ExtIFPortsWarnings 1
AutoGenStim4ExtIFPorts 1
@index
pageloc 1 0 8533 
@status
c 109:11:12:16:06:32;1260630392
n 0 110:00:30:03:08:39;1264817319 e 
s 2832 110:00:30:03:08:43;1264817323 e 
*page 1 0 970 720 iA
@ports
port 9 GLOBAL 600 450 u
a 0 xr 3 0 20 8 hcn 100 LABEL=SONDA_20
port 8 GLOBAL 600 300 u
a 0 xr 3 0 20 8 hcn 100 LABEL=SONDA_19
port 7 GLOBAL 600 150 u
a 0 xr 3 0 20 8 hcn 100 LABEL=SONDA_18
port 10 GLOBAL 600 50 u
a 0 xr 3 0 20 8 hcn 100 LABEL=SONDA_17
@parts
part 16 7404 290 230 h
a 0 sp 11 0 40 40 hln 100 PART=7404
a 0 s 0:13 0 0 0 hln 100 PKGTYPE=DIP14
a 0 s 0:13 0 0 0 hln 100 GATE=A
a 0 x 0:13 0 0 0 hln 100 PKGREF=NE_6
a 0 xp 9 0 28 8 hln 100 REFDES=NE_6A
part 17 7404 290 280 h
a 0 sp 11 0 40 40 hln 100 PART=7404
a 0 s 0:13 0 0 0 hln 100 PKGTYPE=DIP14
a 0 s 0:13 0 0 0 hln 100 GATE=A
a 0 x 0:13 0 0 0 hln 100 PKGREF=NE_7
a 0 xp 9 0 28 8 hln 100 REFDES=NE_7A
part 18 7404 290 380 h
a 0 sp 11 0 40 40 hln 100 PART=7404
a 0 s 0:13 0 0 0 hln 100 PKGTYPE=DIP14
a 0 s 0:13 0 0 0 hln 100 GATE=A
a 0 x 0:13 0 0 0 hln 100 PKGREF=NE_8
a 0 xp 9 0 28 8 hln 100 REFDES=NE_8A
part 19 7404 290 430 h
a 0 sp 11 0 40 40 hln 100 PART=7404
a 0 s 0:13 0 0 0 hln 100 PKGTYPE=DIP14
a 0 s 0:13 0 0 0 hln 100 GATE=A
a 0 x 0:13 0 0 0 hln 100 PKGREF=NE_9
a 0 xp 9 0 28 8 hln 100 REFDES=NE_9A
part 20 7404 290 480 h
a 0 sp 11 0 40 40 hln 100 PART=7404
a 0 s 0:13 0 0 0 hln 100 PKGTYPE=DIP14
a 0 s 0:13 0 0 0 hln 100 GATE=A
a 0 x 0:13 0 0 0 hln 100 PKGREF=NE_10
a 0 xp 9 0 28 8 hln 100 REFDES=NE_10A
part 2 7408 390 140 h
a 0 sp 11 0 40 50 hln 100 PART=7408
a 0 s 0:13 0 0 0 hln 100 PKGTYPE=DIP14
a 0 s 0:13 0 0 0 hln 100 GATE=A
a 0 x 0:13 0 0 0 hln 100 PKGREF=I_11
a 0 xp 9 0 40 0 hln 100 REFDES=I_11A
part 3 7408 390 230 h
a 0 sp 11 0 40 50 hln 100 PART=7408
a 0 s 0:13 0 0 0 hln 100 PKGTYPE=DIP14
a 0 s 0:13 0 0 0 hln 100 GATE=A
a 0 x 0:13 0 0 0 hln 100 PKGREF=I_12
a 0 xp 9 0 40 0 hln 100 REFDES=I_12A
part 4 7408 390 400 h
a 0 sp 11 0 40 50 hln 100 PART=7408
a 0 s 0:13 0 0 0 hln 100 PKGTYPE=DIP14
a 0 s 0:13 0 0 0 hln 100 GATE=A
a 0 x 0:13 0 0 0 hln 100 PKGREF=I_13
a 0 xp 9 0 40 0 hln 100 REFDES=I_13A
part 5 7408 390 490 h
a 0 sp 11 0 40 50 hln 100 PART=7408
a 0 s 0:13 0 0 0 hln 100 PKGTYPE=DIP14
a 0 s 0:13 0 0 0 hln 100 GATE=A
a 0 x 0:13 0 0 0 hln 100 PKGREF=I_14
a 0 xp 9 0 40 0 hln 100 REFDES=I_14A
part 21 7408 500 290 h
a 0 sp 11 0 40 50 hln 100 PART=7408
a 0 s 0:13 0 0 0 hln 100 PKGTYPE=DIP14
a 0 s 0:13 0 0 0 hln 100 GATE=A
a 0 x 0:13 0 0 0 hln 100 PKGREF=I_15
a 0 xp 9 0 40 0 hln 100 REFDES=I_15A
part 6 7408 500 440 h
a 0 sp 11 0 40 50 hln 100 PART=7408
a 0 s 0:13 0 0 0 hln 100 PKGTYPE=DIP14
a 0 s 0:13 0 0 0 hln 100 GATE=A
a 0 x 0:13 0 0 0 hln 100 PKGREF=I_16
a 0 xp 9 0 40 0 hln 100 REFDES=I_16A
part 15 7404 290 130 h
a 0 sp 11 0 40 40 hln 100 PART=7404
a 0 s 0:13 0 0 0 hln 100 PKGTYPE=DIP14
a 0 s 0:13 0 0 0 hln 100 GATE=A
a 0 x 0:13 0 0 0 hln 100 PKGREF=NE_5
a 0 xp 9 0 28 8 hln 100 REFDES=NE_5A
part 14 DigClock 200 510 h
a 0 x 0:13 0 0 0 hln 100 PKGREF=IZVOR_4
a 1 xp 9 0 0 -2 hln 100 REFDES=IZVOR_4
a 0 u 0 0 0 20 hln 100 ONTIME=100uS
a 0 u 0 0 0 30 hln 100 OFFTIME=100uS
part 13 DigClock 200 310 h
a 0 x 0:13 0 0 0 hln 100 PKGREF=IZVOR_3
a 1 xp 9 0 0 -2 hln 100 REFDES=IZVOR_3
a 0 u 0 0 0 20 hln 100 ONTIME=10uS
a 0 u 0 0 0 30 hln 100 OFFTIME=10us
part 11 DigClock 200 50 h
a 0 x 0:13 0 0 0 hln 100 PKGREF=IZVOR_1
a 1 xp 9 0 0 -2 hln 100 REFDES=IZVOR_1
a 0 u 0 0 0 20 hln 100 ONTIME=50uS
a 0 u 0 0 0 30 hln 100 OFFTIME=50uS
part 12 DigClock 200 160 h
a 0 x 0:13 0 0 0 hln 100 PKGREF=IZVOR_2
a 1 xp 9 0 0 -2 hln 100 REFDES=IZVOR_2
a 0 u 0 0 0 20 hln 100 ONTIME=20uS
a 0 u 0 0 0 30 hln 100 OFFTIME=20uS
part 1 titleblk 970 720 h
a 1 s 13 0 350 10 hcn 100 PAGESIZE=A
a 1 s 13 0 180 60 hcn 100 PAGETITLE=
a 1 s 13 0 340 95 hrn 100 PAGECOUNT=1
a 1 s 13 0 300 95 hrn 100 PAGENO=1
part 129 nodeMarker 600 450 h
a 0 s 0 0 0 0 hln 100 PROBEVAR=
a 0 s 0 0 0 0 hln 100 PROBEVAR=
a 0 a 0 0 4 22 hlb 100 LABEL=1
part 130 nodeMarker 600 300 h
a 0 s 0 0 0 0 hln 100 PROBEVAR=
a 0 s 0 0 0 0 hln 100 PROBEVAR=
a 0 a 0 0 4 22 hlb 100 LABEL=2
part 131 nodeMarker 600 150 h
a 0 s 0 0 0 0 hln 100 PROBEVAR=
a 0 s 0 0 0 0 hln 100 PROBEVAR=
a 0 a 0 0 4 22 hlb 100 LABEL=3
part 133 nodeMarker 200 510 h
a 0 s 0 0 0 0 hln 100 PROBEVAR=
a 0 s 0 0 0 0 hln 100 PROBEVAR=
a 0 a 0 0 4 22 hlb 100 LABEL=5
part 134 nodeMarker 200 310 h
a 0 s 0 0 0 0 hln 100 PROBEVAR=
a 0 s 0 0 0 0 hln 100 PROBEVAR=
a 0 a 0 0 4 22 hlb 100 LABEL=6
part 135 nodeMarker 200 160 h
a 0 s 0 0 0 0 hln 100 PROBEVAR=
a 0 s 0 0 0 0 hln 100 PROBEVAR=
a 0 a 0 0 4 22 hlb 100 LABEL=7
part 136 nodeMarker 200 50 h
a 0 s 0 0 0 0 hln 100 PROBEVAR=
a 0 s 0 0 0 0 hln 100 PROBEVAR=
a 0 a 0 0 4 22 hlb 100 LABEL=8
part 132 nodeMarker 600 50 h
a 0 s 0 0 0 0 hln 100 PROBEVAR=
a 0 s 0 0 0 0 hln 100 PROBEVAR=
a 0 a 0 0 4 22 hlb 100 LABEL=4
@conn
w 36
a 0 up 0:33 0 0 0 hln 100 LVL=
s 340 230 390 230 35
a 0 up 33 0 365 229 hct 100 LVL=
w 38
a 0 up 0:33 0 0 0 hln 100 LVL=
s 340 280 370 280 37
s 370 280 370 250 39
a 0 up 33 0 372 265 hlt 100 LVL=
s 370 250 390 250 41
w 56
a 0 up 0:33 0 0 0 hln 100 LVL=
s 460 410 480 410 55
s 480 410 480 440 57
a 0 up 33 0 482 425 hlt 100 LVL=
s 480 440 500 440 59
w 62
a 0 up 0:33 0 0 0 hln 100 LVL=
s 500 460 480 460 61
s 480 460 480 500 63
a 0 up 33 0 482 480 hlt 100 LVL=
s 480 500 460 500 65
w 68
a 0 up 0:33 0 0 0 hln 100 LVL=
s 340 380 370 380 67
a 0 up 33 0 355 379 hct 100 LVL=
s 370 380 370 400 69
s 370 400 390 400 71
w 74
a 0 up 0:33 0 0 0 hln 100 LVL=
s 390 420 370 420 73
s 370 420 370 430 75
s 370 430 340 430 77
a 0 up 33 0 355 429 hct 100 LVL=
w 80
a 0 up 0:33 0 0 0 hln 100 LVL=
s 340 480 370 480 79
a 0 up 33 0 355 479 hct 100 LVL=
s 370 480 370 490 81
s 370 490 390 490 83
w 44
a 0 up 0:33 0 0 0 hln 100 LVL=
s 470 240 460 240 43
s 470 290 470 240 45
a 0 up 33 0 472 265 hlt 100 LVL=
s 500 290 470 290 47
w 30
a 0 up 0:33 0 0 0 hln 100 LVL=
s 370 130 370 140 31
s 370 140 390 140 33
s 340 130 370 130 29
a 0 up 33 0 355 129 hct 100 LVL=
w 54
a 0 up 0:33 0 0 0 hln 100 LVL=
s 570 450 600 450 53
a 0 up 33 0 585 449 hct 100 LVL=
w 50
a 0 up 0:33 0 0 0 hln 100 LVL=
s 570 300 600 300 100
a 0 up 33 0 585 299 hct 100 LVL=
w 52
a 0 up 0:33 0 0 0 hln 100 LVL=
s 460 150 600 150 51
a 0 up 33 0 530 149 hct 100 LVL=
w 86
a 0 up 0:33 0 0 0 hln 100 LVL=
s 200 510 390 510 85
a 0 up 33 0 295 509 hct 100 LVL=
w 95
a 0 up 0:33 0 0 0 hln 100 LVL=
s 500 310 240 310 101
a 0 up 33 0 370 309 hct 100 LVL=
s 240 310 200 310 124
s 240 310 240 480 122
s 240 480 290 480 125
w 99
a 0 up 0:33 0 0 0 hln 100 LVL=
s 200 160 250 160 98
s 250 160 390 160 116
s 250 160 250 280 114
s 250 430 290 430 117
s 250 280 250 430 121
a 0 up 33 0 252 355 hlt 100 LVL=
s 290 280 250 280 119
w 137
a 0 up 0:33 0 0 0 hln 100 LVL=
s 200 50 260 50 22
s 260 50 260 130 105
s 260 230 290 230 108
s 260 230 260 380 110
s 260 380 290 380 112
s 260 50 600 50 28
a 0 up 33 0 430 49 hct 100 LVL=
s 260 130 260 230 138
s 290 130 260 130 24
@junction
j 390 230
+ p 3 A
+ w 36
j 340 230
+ p 16 Y
+ w 36
j 340 280
+ p 17 Y
+ w 38
j 390 250
+ p 3 B
+ w 38
j 600 150
+ s 7
+ w 52
j 570 450
+ p 6 Y
+ w 54
j 600 450
+ s 9
+ w 54
j 460 410
+ p 4 Y
+ w 56
j 500 440
+ p 6 A
+ w 56
j 500 460
+ p 6 B
+ w 62
j 460 500
+ p 5 Y
+ w 62
j 340 380
+ p 18 Y
+ w 68
j 390 400
+ p 4 A
+ w 68
j 390 420
+ p 4 B
+ w 74
j 340 430
+ p 19 Y
+ w 74
j 340 480
+ p 20 Y
+ w 80
j 390 490
+ p 5 A
+ w 80
j 390 510
+ p 5 B
+ w 86
j 460 240
+ p 3 Y
+ w 44
j 500 290
+ p 21 A
+ w 44
j 570 300
+ p 21 Y
+ w 50
j 600 300
+ s 8
+ w 50
j 500 310
+ p 21 B
+ w 95
j 290 230
+ p 16 A
+ w 137
j 260 230
+ w 137
+ w 137
j 290 380
+ p 18 A
+ w 137
j 250 160
+ w 99
+ w 99
j 290 430
+ p 19 A
+ w 99
j 290 280
+ p 17 A
+ w 99
j 250 280
+ w 99
+ w 99
j 240 310
+ w 95
+ w 95
j 290 480
+ p 20 A
+ w 95
j 340 130
+ p 15 Y
+ w 30
j 390 140
+ p 2 A
+ w 30
j 460 150
+ p 2 Y
+ w 52
j 390 160
+ p 2 B
+ w 99
j 600 450
+ p 129 pin1
+ s 9
j 600 450
+ p 129 pin1
+ w 54
j 600 300
+ p 130 pin1
+ s 8
j 600 300
+ p 130 pin1
+ w 50
j 600 150
+ p 131 pin1
+ s 7
j 600 150
+ p 131 pin1
+ w 52
j 600 50
+ p 132 pin1
+ s 10
j 200 510
+ p 133 pin1
+ w 86
j 200 310
+ p 134 pin1
+ w 95
j 200 160
+ p 135 pin1
+ w 99
j 200 50
+ p 136 pin1
+ w 137
j 600 50
+ s 10
+ w 137
j 600 50
+ p 132 pin1
+ w 137
j 260 50
+ w 137
+ w 137
j 290 130
+ p 15 A
+ w 137
j 260 130
+ w 137
+ w 137
j 200 160
+ p 12 1
+ w 99
j 200 160
+ p 135 pin1
+ p 12 1
j 200 50
+ p 11 1
+ w 137
j 200 50
+ p 136 pin1
+ p 11 1
j 200 310
+ p 13 1
+ w 95
j 200 310
+ p 134 pin1
+ p 13 1
j 200 510
+ p 14 1
+ w 86
j 200 510
+ p 133 pin1
+ p 14 1
@attributes
a 0 s 0:13 0 0 0 hln 100 PAGETITLE=
a 0 s 0:13 0 0 0 hln 100 PAGENO=1
a 0 s 0:13 0 0 0 hln 100 PAGESIZE=A
a 0 s 0:13 0 0 0 hln 100 PAGECOUNT=1
@graphics
t 139 t 5 150 5 203 21 0 13
Test primer 4
